!-Generator IDFEditor 1.55
!-Option SortedOrder

!-NOTE: All comments with '!-' are ignored by the IDFEditor and are generated automatically.
!-      Use '!' comments if they need to be retained when using the IDFEditor.


!-   ===========  ALL OBJECTS IN CLASS: VERSION ===========

!==================================================================================================
! MODEL MODIFICATION NOTE
!
! This IDF file was originally generated as an ASHRAE 90.1-2022 baseline model for a
! RetailStandalone building. The original HVAC system was composed of multiple
! Packaged Single Zone Air Conditioners (PSZ-ACs) with gas furnaces and DX cooling.
!
! The HVAC system has been manually modified for a specific analysis.
! Key changes include:
!   1. REMOVED: All AirLoopHVAC and ZoneHVAC:PackagedSingleZoneAirConditioner objects.
!   2. REMOVED: All mechanical cooling systems.
!   3. ADDED: ZoneHVAC:Baseboard:Convective:Water in each zone for heating.
!   4. ADDED: A PlantLoop with a DistrictHeating:Water source to supply the baseboards.
!   5. RETAINED/ADDED: ZoneHVAC:EnergyRecoveryVentilator (ERV) units in each zone to provide
!      dedicated, energy-efficient ventilation.
!
! The current model represents a building with hydronic baseboard heating and
! a balanced, heat-recovery ventilation system.
!==================================================================================================
!The DOE Prototype Building Models were developed by Pacific Northwest National Laboratory (PNNL), under contract with the
!U.S. Department of Energy (DOE).  These prototype models are used to calculate alternative building performance factors
!for use with the Standard 90.1 Performance Rating Method (Appendix G) using an updated approach described in the PNNL
!Technical Support Document titled, "Commercial Building Prototypes Based on ANSI/ASHRAE/IES Standard 90.1 Appendix G
!PRM". The basic building descriptions can be found in the Scorecards posted at www.energycodes.gov website. The recommended
!citation of the prototype models are
!
!PNNL 2024. Commercial Building Prototypes Based on ANSI/ASHRAE/IES Standard 90.1 Appendix G PRM.  Available at
!http://www.energycodes.gov/sites/default/files/2024-06/Commercial_Prototypes_ASHRAE901-2019AppGPRM.pdf
!
!DOE and PNNL. 2023. Commercial Prototype Building Models, Richland, WA, Pacific Northwest National Laboratory. Available
!at https://www.energycodes.gov/development/commercial/prototype_models.
!
!Detailed descriptions of the prototype model development and addenda modeling strategies can be found in the following  reports:
!
!Maddox D.E., J. Zhang, Y. Xie, W. Xu, X. Liu, S. Wang, and M.I. Rosenberg. 2022. Energy and Energy Cost Savings Analysis of the 2021 IECC
!for Commercial Buildings. PNNL-32816. Richland, WA: Pacific Northwest National Laboratory.
!
!Zhang J., M.I. Rosenberg, J. Lerond, Y. Xie, C. Chandrasekharan Nambiar, Y. Chen, and R. Hart, et al. 2021. Energy Savings Analysis:
!ANSI/ASHRAE/IES Standard 90.1-2019. PNNL-31488. Richland, WA: Pacific Northwest National Laboratory.
!
!Zhang, J., Y. Chen, Y. Xie, M. Rosenberg, R. Hart. Energy and Energy Cost Savings Analysis of the 2018 IECC for Commercial Buildings.
!2018. PNNL-28125. Richland, WA: Pacific Northwest National Laboratory.
!
!DOE. 2017. Energy Savings Analysis: ANSI/ASHRAE/IES Standard 90.1-2016. Prepared by Athalye, R.A, M.A. Halverson, M.I. Rosenberg, B. Liu,
!J. Zhang, R. Hart, V.V. Mendon, S. Goel, Y. Chen, Y. Xie, and M. Zhao, Richland, WA, Pacific Northwest National Laboratory. https://www.energycodes.gov/sites/default/files/documents/02202018_Standard_90.1-2016_Determination_TSD.pdf.
!
!Zhang, J., Y. Xie, R.A. Athalye, J. Zhuge, M. Rosenberg, R. Hart, and B. Liu. Energy and Energy Cost Savings Analysis of the 2015 IECC
!for Commercial Buildings. 2015. PNNL-24269 Rev. 1. Richland, WA: Pacific Northwest National
!Laboratory. https://www.energycodes.gov/sites/default/files/documents/2015_IECC_Commercial_Analysis.pdf.
!
!Halverson M.A., M.I. Rosenberg, W. Wang, J. Zhang, V.V. Mendon, R.A. Athalye, Y. Xie, R. Hart, S. Goel, 2014. ANSI/ASHRAE/IES Standard
!90.1-2013 Determination of Energy Savings: Quantitative Analysis, PNNL-23479. Richland, WA: Pacific Northwest National Laboratory. https://www.energycodes.gov/sites/default/files/documents/901-2013_finalCommercialDeterminationQuantitativeAnalysis_TSD_0.pdf.
!
!Goel S., R.A. Athalye, W. Wang, J. Zhang, M.I. Rosenberg, Y. Xie, and R. Hart, et al. 2014. Enhancements to ASHRAE Standard 90.1
!Prototype Building Models. PNNL-23269. Richland, WA: Pacific Northwest National Laboratory. https://www.pnnl.gov/main/publications/external/technical_reports/PNNL-23269.pdf.
!
!Zhang J., R.A. Athalye, R. Hart, M.I. Rosenberg, Y. Xie, S. Goel, and V.V. Mendon, et al. 2013. Energy and Energy Cost Savings Analysis
!of the IECC for Commercial Buildings. PNNL-22760. Richland, WA: Pacific Northwest National Laboratory. http://www.pnnl.gov/main/publications/external/technical_reports/PNNL-22760.pdf.
!
!Thornton B.A., M.I. Rosenberg, E.E. Richman, W. Wang, Y. Xie, J. Zhang, H. Cho, VV Mendon, R.A. Athalye, and B. Liu. 2011. Achieving
!the 30% Goal: Energy and Cost Savings Analysis of ASHRAE Standard 90.1-2010. PNNL-20405. Richland, WA: Pacific Northwest National
!Laboratory.  https://www.energycodes.gov/sites/default/files/documents/BECP_Energy_Cost_Savings_STD2010_May2011_v00.pdf.
!
!
! WeatherFile:  USA_MN_Rochester.Intl.AP.726440_TMY3.epw
! GPARM parameters generated inside templates:
!    AnalysisPurposeForEC = PerformancePathBaseline
!    AnalysisCodeYearForEC = 2022
!    AnalysisPurposeForLtg = PerformancePathBaseline
!    Point_Of_Sale_DCV = No
!    AnalysisCodeYearForDCV = 2022
!    AnalysisCodeYearForWinSky = 2022
!    Back_Space_DCV = No
!    AnalysisCodeYearForEnv = 2022
!    AnalysisPurposeForEnv = PerformancePathBaseline
!    PSZ_AC_2_ERV_power = 1406.31178
!    AnalysisPurposeForWinSky = PerformancePathBaseline
!    PSZ_AC_2_ERV = No
!    AnalysisCodeYearForLtg = 2022
!    Front_Retail_DCV = No
!    Core_Retail_DCV = No
! GPARM parameters as input:
!    Case = ASHRAE901_RetailStandalone_STD2022AppGBaseline_Rochester
!    AnalysisPurpose = PerformancePathBaseline
!    AnalysisCodeName = ASHRAE901
!    AnalysisCodeYear = 2022
!    AnalysisAmendment = NoneAmend
!    AnalysisPrototype = RetailStandalone
!    AnalysisScope = National
!    AnalysisState = National
!    AnalysisClimateZone = 6A
!    AnalysisCity = USA_MN_Rochester
!    AnalysisCustomFlag = Default
!    hvac_autogen = appg2019_basegas
!    AltParmTmpl = none
!    roof_emissivity = 0.9
!    roof_solar_absorp = 0.7
!    exterior_lights_watts = 7996.55
!    exterior_lights_watts_a =
!    exterior_lights_watts_b =
!    economizer = FixedDryBulb
!    skip_economizer_control = No
!    cc_sa_humidity = 0.0085
!    damper_sch = MinOA_MotorizedDamper_Sched
!    skylights = d_ab
!    daylighting_control = no
!    door_infil = 0.937286742
!    frac_ofpk = 0.131
!    economizer_lockout = LockoutWithHeating
!    addendum_cd = no
!    STD189_overhang = no
!    swh_et = 1
!    swh_ua = 1.11925
!    ext_lgt_sch = Exterior_Lgt_ALWAYS_ON
!    HtgSetP_Sch = HTGSETP_SCH_NO_OPTIMUM
!    ClgSetP_Sch = CLGSETP_SCH_NO_SETBACK
!    pipe_heat_loss = 0
!    skip_EMSprogram = no
!    HtgSetP_Sch_PSZ_AC_2 = HTGSETP_SCH_YES_OPTIMUM
!    ClgSetP_Sch_PSZ_AC_2 = CLGSETP_SCH_YES_OPTIMUM
!    OA_BASED_OPTIMUM_START_EMS = yes
!    OPTIMUM_START_SF_DEPENDENT_EMS = no
!    Wfile_TMY3 = USA_MN_Rochester.Intl.AP.726440_TMY3.epw
!    HtgSetP_Sch_FrontEntry = HTGSETP_SCH_FrontEntry_STD2013
!    receptacle_ctrl_occ_reduction_frac = 0.997200822
!    receptacle_ctrl_unocc_reduction_frac = 0.986862812
!    CodeName = ASHRAE90.1_STD2019
!    CZ_Label = 6A
!    Addendum_AH = No
!    LPD_Ctrl = 0
!    nonresLSG = 1.1
!    Water_Heater_flow = 1.89e-05
!    orientation = 0
!    wwr = 0.11
!    ZoneSysMapID = DEFAULT
!    HasMZ = no
!    Filename_left = ASHRAE901_RetailStandalone_STD2022AppGBaseline_Rochester
!    Zone_left = Zone 6A
!    Roof_Thermal_Emittance_left = 0.9
!    Roof_Solar_Reflectance_left = 0.23
!    Exterior_Lights_W_left =
!    Exterior_Lights_a_add_CD_W_left =
!    Exterior_Lights_b_add_CD_W_left =
!    Skylights_left = d_ab
!    daylighting_control_left = d_ab
!    Door_Infiltration_Rate_left = 1986
!    Off_peak_Fraction_left = 0.131
!    hourly_output = yes
!    webposting = yes
! specify overhang_pf for 1891 codes
Version,
    25.1;                    !- Version Identifier


!-   ===========  ALL OBJECTS IN CLASS: SIMULATIONCONTROL ===========

SimulationControl,
    Yes,                     !- Do Zone Sizing Calculation
    Yes,                     !- Do System Sizing Calculation
    Yes,                     !- Do Plant Sizing Calculation
    No,                      !- Run Simulation for Sizing Periods
    Yes,                     !- Run Simulation for Weather File Run Periods
    No,                      !- Do HVAC Sizing Simulation for Sizing Periods
    1;                       !- Maximum Number of HVAC Sizing Simulation Passes


!-   ===========  ALL OBJECTS IN CLASS: BUILDING ===========

Building,
    RetailStandalone,        !- Name
    0,                       !- North Axis {deg}
    City,                    !- Terrain
    0.0400,                  !- Loads Convergence Tolerance Value {W}
    0.2000,                  !- Temperature Convergence Tolerance Value {deltaC}
    FullInteriorAndExterior, !- Solar Distribution
    25,                      !- Maximum Number of Warmup Days
    6;                       !- Minimum Number of Warmup Days


!-   ===========  ALL OBJECTS IN CLASS: SHADOWCALCULATION ===========

ShadowCalculation,
    PolygonClipping,         !- Shading Calculation Method
    Periodic,                !- Shading Calculation Update Frequency Method
    30,                      !- Shading Calculation Update Frequency
    15000;                   !- Maximum Figures in Shadow Overlap Calculations


!-   ===========  ALL OBJECTS IN CLASS: SURFACECONVECTIONALGORITHM:INSIDE ===========

SurfaceConvectionAlgorithm:Inside,
    TARP;                    !- Algorithm


!-   ===========  ALL OBJECTS IN CLASS: SURFACECONVECTIONALGORITHM:OUTSIDE ===========

SurfaceConvectionAlgorithm:Outside,
    TARP;                    !- Algorithm


!-   ===========  ALL OBJECTS IN CLASS: HEATBALANCEALGORITHM ===========

HeatBalanceAlgorithm,
    ConductionTransferFunction,  !- Algorithm
    200.0000;                !- Surface Temperature Upper Limit {C}


!-   ===========  ALL OBJECTS IN CLASS: TIMESTEP ===========

Timestep,
    6;                       !- Number of Timesteps per Hour


!-   ===========  ALL OBJECTS IN CLASS: CONVERGENCELIMITS ===========

ConvergenceLimits,
    1,                       !- Minimum System Timestep {minutes}
    20;                      !- Maximum HVAC Iterations


!-   ===========  ALL OBJECTS IN CLASS: SITE:LOCATION ===========

! Site:Location and design-day objects created by:
! ../../modules/doe_bldg_tools/bin/ddy2idf ../../tools/epw/USA_MN_Rochester.Intl.AP.726440_TMY3.ddy
!
Site:Location,
    Vasteras,                !- Name
    59.589,                  !- Latitude {deg}
    16.634,                  !- Longitude {deg}
    1,                       !- Time Zone {hr}
    6.4;                     !- Elevation {m}


!-   ===========  ALL OBJECTS IN CLASS: SIZINGPERIOD:DESIGNDAY ===========

SizingPeriod:DesignDay,
    Vasteras Ann Htg 99.6% Condns DB,  !- Name
    1,                       !- Month
    21,                      !- Day of Month
    WinterDesignDay,         !- Day Type
    -18.1,                   !- Maximum Dry-Bulb Temperature {C}
    0.0,                     !- Daily Dry-Bulb Temperature Range {deltaC}
    DefaultMultipliers,      !- Dry-Bulb Temperature Range Modifier Type
    ,                        !- Dry-Bulb Temperature Range Modifier Day Schedule Name
    Wetbulb,                 !- Humidity Condition Type
    -18.1,                   !- Wetbulb or DewPoint at Maximum Dry-Bulb {C}
    ,                        !- Humidity Condition Day Schedule Name
    ,                        !- Humidity Ratio at Maximum Dry-Bulb {kgWater/kgDryAir}
    ,                        !- Enthalpy at Maximum Dry-Bulb {J/kg}
    ,                        !- Daily Wet-Bulb Temperature Range {deltaC}
    101245,                  !- Barometric Pressure {Pa}
    3.6,                     !- Wind Speed {m/s}
    270,                     !- Wind Direction {deg}
    No,                      !- Rain Indicator
    No,                      !- Snow Indicator
    No,                      !- Daylight Saving Time Indicator
    ASHRAEClearSky,          !- Solar Model Indicator
    ,                        !- Beam Solar Day Schedule Name
    ,                        !- Diffuse Solar Day Schedule Name
    ,                        !- ASHRAE Clear Sky Optical Depth for Beam Irradiance (taub) {dimensionless}
    ,                        !- ASHRAE Clear Sky Optical Depth for Diffuse Irradiance (taud) {dimensionless}
    0.00;                    !- Sky Clearness

SizingPeriod:DesignDay,
    Vasteras Ann Clg 0.4% Condns DB=>MWB,  !- Name
    7,                       !- Month
    21,                      !- Day of Month
    SummerDesignDay,         !- Day Type
    27.2,                    !- Maximum Dry-Bulb Temperature {C}
    10.0,                    !- Daily Dry-Bulb Temperature Range {deltaC}
    DefaultMultipliers,      !- Dry-Bulb Temperature Range Modifier Type
    ,                        !- Dry-Bulb Temperature Range Modifier Day Schedule Name
    Wetbulb,                 !- Humidity Condition Type
    17.8,                    !- Wetbulb or DewPoint at Maximum Dry-Bulb {C}
    ,                        !- Humidity Condition Day Schedule Name
    ,                        !- Humidity Ratio at Maximum Dry-Bulb {kgWater/kgDryAir}
    ,                        !- Enthalpy at Maximum Dry-Bulb {J/kg}
    ,                        !- Daily Wet-Bulb Temperature Range {deltaC}
    101245,                  !- Barometric Pressure {Pa}
    4.1,                     !- Wind Speed {m/s}
    200,                     !- Wind Direction {deg}
    No,                      !- Rain Indicator
    No,                      !- Snow Indicator
    No,                      !- Daylight Saving Time Indicator
    ASHRAETau,               !- Solar Model Indicator
    ,                        !- Beam Solar Day Schedule Name
    ,                        !- Diffuse Solar Day Schedule Name
    0.404,                   !- ASHRAE Clear Sky Optical Depth for Beam Irradiance (taub) {dimensionless}
    2.226;                   !- ASHRAE Clear Sky Optical Depth for Diffuse Irradiance (taud) {dimensionless}


!-   ===========  ALL OBJECTS IN CLASS: RUNPERIOD ===========

RunPeriod,
    RUNPERIOD 1,             !- Name
    1,                       !- Begin Month
    1,                       !- Begin Day of Month
    ,                        !- Begin Year
    1,                       !- End Month
    31,                      !- End Day of Month
    ,                        !- End Year
    ,                        !- Day of Week for Start Day
    No,                      !- Use Weather File Holidays and Special Days
    No,                      !- Use Weather File Daylight Saving Period
    No,                      !- Apply Weekend Holiday Rule
    Yes,                     !- Use Weather File Rain Indicators
    Yes;                     !- Use Weather File Snow Indicators


!-   ===========  ALL OBJECTS IN CLASS: RUNPERIODCONTROL:SPECIALDAYS ===========

RunPeriodControl:SpecialDays,
    New Year's Day,          !- Name
    January 1,               !- Start Date
    1,                       !- Duration {days}
    Holiday;                 !- Special Day Type

RunPeriodControl:SpecialDays,
    Epiphany,                !- Name
    January 6,               !- Start Date
    1,                       !- Duration {days}
    Holiday;                 !- Special Day Type

RunPeriodControl:SpecialDays,
    Good Friday,             !- Name
    April 18,                !- Start Date
    1,                       !- Duration {days}
    Holiday;                 !- Special Day Type

RunPeriodControl:SpecialDays,
    Easter Monday,           !- Name
    April 21,                !- Start Date
    1,                       !- Duration {days}
    Holiday;                 !- Special Day Type

RunPeriodControl:SpecialDays,
    May Day,                 !- Name
    May 1,                   !- Start Date
    1,                       !- Duration {days}
    Holiday;                 !- Special Day Type

RunPeriodControl:SpecialDays,
    Ascension Day,           !- Name
    May 29,                  !- Start Date
    1,                       !- Duration {days}
    Holiday;                 !- Special Day Type

RunPeriodControl:SpecialDays,
    National Day,            !- Name
    June 6,                  !- Start Date
    1,                       !- Duration {days}
    Holiday;                 !- Special Day Type

RunPeriodControl:SpecialDays,
    Midsummer Day,           !- Name
    June 21,                 !- Start Date
    1,                       !- Duration {days}
    Holiday;                 !- Special Day Type

RunPeriodControl:SpecialDays,
    All Saints' Day,         !- Name
    November 1,              !- Start Date
    1,                       !- Duration {days}
    Holiday;                 !- Special Day Type

RunPeriodControl:SpecialDays,
    Christmas Eve,           !- Name
    December 24,             !- Start Date
    1,                       !- Duration {days}
    Holiday;                 !- Special Day Type

RunPeriodControl:SpecialDays,
    Christmas Day,           !- Name
    December 25,             !- Start Date
    1,                       !- Duration {days}
    Holiday;                 !- Special Day Type

RunPeriodControl:SpecialDays,
    Boxing Day,              !- Name
    December 26,             !- Start Date
    1,                       !- Duration {days}
    Holiday;                 !- Special Day Type


!-   ===========  ALL OBJECTS IN CLASS: RUNPERIODCONTROL:DAYLIGHTSAVINGTIME ===========

RunPeriodControl:DaylightSavingTime,
    Last Sunday in March,    !- Start Date
    Last Sunday in October;  !- End Date


!-   ===========  ALL OBJECTS IN CLASS: SITE:GROUNDTEMPERATURE:FCFACTORMETHOD ===========

! Site:GroundTemperature:FCfactorMethod objects created by:
! ../../modules/doe_bldg_tools/bin/stat2idf_mod_fcfactors ../../tools/epw/USA_MN_Rochester.Intl.AP.726440_TMY3.stat
!
Site:GroundTemperature:FCfactorMethod,
    -0.54,                   !- January Ground Temperature {C}
    -1.31,                   !- February Ground Temperature {C}
    0.06,                    !- March Ground Temperature {C}
    2.21,                    !- April Ground Temperature {C}
    7.82,                    !- May Ground Temperature {C}
    12.16,                   !- June Ground Temperature {C}
    15.08,                   !- July Ground Temperature {C}
    15.97,                   !- August Ground Temperature {C}
    14.46,                   !- September Ground Temperature {C}
    11.09,                   !- October Ground Temperature {C}
    6.59,                    !- November Ground Temperature {C}
    2.42;                    !- December Ground Temperature {C}


!-   ===========  ALL OBJECTS IN CLASS: SITE:WATERMAINSTEMPERATURE ===========

! Site:WaterMainsTemperature object created by:
! ../../modules/doe_bldg_tools/bin/stat2idf_mod ../../tools/epw/USA_MN_Rochester.Intl.AP.726440_TMY3.stat
!
Site:WaterMainsTemperature,
    CORRELATION,             !- Calculation Method
    ,                        !- Temperature Schedule Name
    6.9,                     !- Annual Average Outdoor Air Temperature {C}
    19.9;                    !- Maximum Difference In Monthly Average Outdoor Air Temperatures {deltaC}


!-   ===========  ALL OBJECTS IN CLASS: SCHEDULETYPELIMITS ===========

ScheduleTypeLimits,
    Any Number;              !- Name

ScheduleTypeLimits,
    Fraction,                !- Name
    0.0,                     !- Lower Limit Value
    1.0,                     !- Upper Limit Value
    CONTINUOUS;              !- Numeric Type

ScheduleTypeLimits,
    Temperature,             !- Name
    -60,                     !- Lower Limit Value
    200,                     !- Upper Limit Value
    CONTINUOUS;              !- Numeric Type

ScheduleTypeLimits,
    On/Off,                  !- Name
    0,                       !- Lower Limit Value
    1,                       !- Upper Limit Value
    DISCRETE;                !- Numeric Type

ScheduleTypeLimits,
    Control Type,            !- Name
    0,                       !- Lower Limit Value
    4,                       !- Upper Limit Value
    DISCRETE;                !- Numeric Type

ScheduleTypeLimits,
    Humidity,                !- Name
    10,                      !- Lower Limit Value
    90,                      !- Upper Limit Value
    CONTINUOUS;              !- Numeric Type

ScheduleTypeLimits,
    Number;                  !- Name


!-   ===========  ALL OBJECTS IN CLASS: SCHEDULE:COMPACT ===========

Schedule:Compact,
    ltg_sch_entry,           !- Name
    Fraction,                !- Schedule Type Limits Name
    Through: 12/31,          !- Field 1
    For: SummerDesignDay,    !- Field 2
    Until: 24:00,            !- Field 3
    1,                       !- Field 4
    For: WinterDesignDay,    !- Field 5
    Until: 24:00,            !- Field 6
    0,                       !- Field 7
    For: Weekdays,           !- Field 8
    Until: 7:00,             !- Field 9
    0.05,                    !- Field 10
    Until: 8:00,             !- Field 11
    0.2,                     !- Field 12
    Until: 9:00,             !- Field 13
    0.4,                     !- Field 14
    Until: 18:00,            !- Field 15
    0.9,                     !- Field 16
    Until: 21:00,            !- Field 17
    0.5,                     !- Field 18
    Until: 22:00,            !- Field 19
    0.2,                     !- Field 20
    Until: 24:00,            !- Field 21
    0.05,                    !- Field 22
    For: Saturday,           !- Field 23
    Until: 7:00,             !- Field 24
    0.05,                    !- Field 25
    Until: 8:00,             !- Field 26
    0.1,                     !- Field 27
    Until: 9:00,             !- Field 28
    0.3,                     !- Field 29
    Until: 10:00,            !- Field 30
    0.6,                     !- Field 31
    Until: 18:00,            !- Field 32
    0.9,                     !- Field 33
    Until: 19:00,            !- Field 34
    0.5,                     !- Field 35
    Until: 21:00,            !- Field 36
    0.3,                     !- Field 37
    Until: 22:00,            !- Field 38
    0.1,                     !- Field 39
    Until: 24:00,            !- Field 40
    0.05,                    !- Field 41
    For: AllOtherDays,       !- Field 42
    Until: 9:00,             !- Field 43
    0.05,                    !- Field 44
    Until: 10:00,            !- Field 45
    0.1,                     !- Field 46
    Until: 12:00,            !- Field 47
    0.4,                     !- Field 48
    Until: 17:00,            !- Field 49
    0.6,                     !- Field 50
    Until: 18:00,            !- Field 51
    0.4,                     !- Field 52
    Until: 19:00,            !- Field 53
    0.2,                     !- Field 54
    Until: 24:00,            !- Field 55
    0.05;                    !- Field 56

Schedule:Compact,
    ltg_sch_core,            !- Name
    Fraction,                !- Schedule Type Limits Name
    Through: 12/31,          !- Field 1
    For: SummerDesignDay,    !- Field 2
    Until: 24:00,            !- Field 3
    1,                       !- Field 4
    For: WinterDesignDay,    !- Field 5
    Until: 24:00,            !- Field 6
    0,                       !- Field 7
    For: Weekdays,           !- Field 8
    Until: 7:00,             !- Field 9
    0.05,                    !- Field 10
    Until: 8:00,             !- Field 11
    0.2,                     !- Field 12
    Until: 9:00,             !- Field 13
    0.4,                     !- Field 14
    Until: 18:00,            !- Field 15
    0.9,                     !- Field 16
    Until: 21:00,            !- Field 17
    0.5,                     !- Field 18
    Until: 22:00,            !- Field 19
    0.2,                     !- Field 20
    Until: 24:00,            !- Field 21
    0.05,                    !- Field 22
    For: Saturday,           !- Field 23
    Until: 7:00,             !- Field 24
    0.05,                    !- Field 25
    Until: 8:00,             !- Field 26
    0.1,                     !- Field 27
    Until: 9:00,             !- Field 28
    0.3,                     !- Field 29
    Until: 10:00,            !- Field 30
    0.6,                     !- Field 31
    Until: 18:00,            !- Field 32
    0.9,                     !- Field 33
    Until: 19:00,            !- Field 34
    0.5,                     !- Field 35
    Until: 21:00,            !- Field 36
    0.3,                     !- Field 37
    Until: 22:00,            !- Field 38
    0.1,                     !- Field 39
    Until: 24:00,            !- Field 40
    0.05,                    !- Field 41
    For: AllOtherDays,       !- Field 42
    Until: 9:00,             !- Field 43
    0.05,                    !- Field 44
    Until: 10:00,            !- Field 45
    0.1,                     !- Field 46
    Until: 12:00,            !- Field 47
    0.4,                     !- Field 48
    Until: 17:00,            !- Field 49
    0.6,                     !- Field 50
    Until: 18:00,            !- Field 51
    0.4,                     !- Field 52
    Until: 19:00,            !- Field 53
    0.2,                     !- Field 54
    Until: 24:00,            !- Field 55
    0.05;                    !- Field 56

Schedule:Compact,
    ltg_sch_back,            !- Name
    Fraction,                !- Schedule Type Limits Name
    Through: 12/31,          !- Field 1
    For: SummerDesignDay,    !- Field 2
    Until: 24:00,            !- Field 3
    1,                       !- Field 4
    For: WinterDesignDay,    !- Field 5
    Until: 24:00,            !- Field 6
    0,                       !- Field 7
    For: Weekdays,           !- Field 8
    Until: 7:00,             !- Field 9
    0.05,                    !- Field 10
    Until: 8:00,             !- Field 11
    0.2,                     !- Field 12
    Until: 9:00,             !- Field 13
    0.4,                     !- Field 14
    Until: 18:00,            !- Field 15
    0.9,                     !- Field 16
    Until: 21:00,            !- Field 17
    0.5,                     !- Field 18
    Until: 22:00,            !- Field 19
    0.2,                     !- Field 20
    Until: 24:00,            !- Field 21
    0.05,                    !- Field 22
    For: Saturday,           !- Field 23
    Until: 7:00,             !- Field 24
    0.05,                    !- Field 25
    Until: 8:00,             !- Field 26
    0.1,                     !- Field 27
    Until: 9:00,             !- Field 28
    0.3,                     !- Field 29
    Until: 10:00,            !- Field 30
    0.6,                     !- Field 31
    Until: 18:00,            !- Field 32
    0.9,                     !- Field 33
    Until: 19:00,            !- Field 34
    0.5,                     !- Field 35
    Until: 21:00,            !- Field 36
    0.3,                     !- Field 37
    Until: 22:00,            !- Field 38
    0.1,                     !- Field 39
    Until: 24:00,            !- Field 40
    0.05,                    !- Field 41
    For: AllOtherDays,       !- Field 42
    Until: 9:00,             !- Field 43
    0.05,                    !- Field 44
    Until: 10:00,            !- Field 45
    0.1,                     !- Field 46
    Until: 12:00,            !- Field 47
    0.4,                     !- Field 48
    Until: 17:00,            !- Field 49
    0.6,                     !- Field 50
    Until: 18:00,            !- Field 51
    0.4,                     !- Field 52
    Until: 19:00,            !- Field 53
    0.2,                     !- Field 54
    Until: 24:00,            !- Field 55
    0.05;                    !- Field 56

Schedule:Compact,
    ltg_sch_sale,            !- Name
    Fraction,                !- Schedule Type Limits Name
    Through: 12/31,          !- Field 1
    For: SummerDesignDay,    !- Field 2
    Until: 24:00,            !- Field 3
    1,                       !- Field 4
    For: WinterDesignDay,    !- Field 5
    Until: 24:00,            !- Field 6
    0,                       !- Field 7
    For: Weekdays,           !- Field 8
    Until: 7:00,             !- Field 9
    0.05,                    !- Field 10
    Until: 8:00,             !- Field 11
    0.2,                     !- Field 12
    Until: 9:00,             !- Field 13
    0.4,                     !- Field 14
    Until: 18:00,            !- Field 15
    0.9,                     !- Field 16
    Until: 21:00,            !- Field 17
    0.5,                     !- Field 18
    Until: 22:00,            !- Field 19
    0.2,                     !- Field 20
    Until: 24:00,            !- Field 21
    0.05,                    !- Field 22
    For: Saturday,           !- Field 23
    Until: 7:00,             !- Field 24
    0.05,                    !- Field 25
    Until: 8:00,             !- Field 26
    0.1,                     !- Field 27
    Until: 9:00,             !- Field 28
    0.3,                     !- Field 29
    Until: 10:00,            !- Field 30
    0.6,                     !- Field 31
    Until: 18:00,            !- Field 32
    0.9,                     !- Field 33
    Until: 19:00,            !- Field 34
    0.5,                     !- Field 35
    Until: 21:00,            !- Field 36